Version 4
SHEET 1 880 680
WIRE 256 96 256 80
WIRE 208 112 192 112
WIRE 192 208 192 112
WIRE 256 208 256 192
WIRE 256 208 192 208
WIRE 288 208 256 208
WIRE 256 224 256 208
WIRE 256 352 256 320
FLAG 256 80 VDD
FLAG 288 208 VO
FLAG 96 256 VDD
FLAG 256 352 0
FLAG 96 80 VI
FLAG 96 160 0
FLAG 96 336 0
FLAG 208 304 VI
SYMBOL pmos 208 192 M180
SYMATTR InstName MP
SYMATTR Value mP
SYMBOL voltage 96 240 R0
WINDOW 123 0 0 Left 0
WINDOW 39 0 0 Left 0
SYMATTR InstName VDD
SYMATTR Value 5
SYMBOL voltage 96 64 R0
WINDOW 123 0 0 Left 0
WINDOW 39 0 0 Left 0
SYMATTR InstName VI
SYMATTR Value 0
SYMBOL nmos 208 224 R0
SYMATTR InstName mN
SYMATTR Value MN
TEXT 24 416 VLeft 2 !.model mN NMOS(KP=100u, Vto=1)\n.model mP PMOS(KP=20u, Vto=-1)
TEXT 88 368 Left 2 !.dc VI 0 5 .01
