Version 4
SHEET 1 880 680
WIRE 144 -144 0 -144
WIRE 224 -144 144 -144
WIRE 0 -96 0 -144
WIRE 224 -96 224 -144
WIRE 224 0 224 -16
WIRE 320 0 224 0
WIRE 320 32 320 0
WIRE 224 48 224 0
WIRE 224 96 224 48
WIRE 320 128 320 96
WIRE -16 144 -32 144
WIRE 80 144 64 144
WIRE 128 144 80 144
WIRE 160 144 128 144
WIRE -32 208 -32 144
WIRE 80 224 80 144
WIRE 224 240 224 192
WIRE 80 320 80 288
FLAG 224 48 c
FLAG 128 144 b
FLAG -32 288 0
FLAG 80 400 0
FLAG 224 320 0
FLAG 0 -16 0
FLAG 320 128 o
FLAG 144 -144 cc
SYMBOL Misc\\battery 0 -112 R0
WINDOW 123 0 0 Left 0
WINDOW 39 0 0 Left 0
SYMATTR InstName V1
SYMATTR Value 10V
SYMBOL Misc\\battery -32 192 R0
WINDOW 123 0 0 Left 0
WINDOW 39 0 0 Left 0
SYMATTR InstName Vbb
SYMATTR Value 1.79V
SYMBOL voltage 80 304 R0
WINDOW 123 0 0 Left 0
WINDOW 39 0 0 Left 0
SYMATTR InstName Vsig
SYMATTR Value SINE(0 .7 1k)
SYMBOL cap 64 224 R0
SYMATTR InstName Ci
SYMATTR Value 10µ
SYMBOL cap 304 32 R0
SYMATTR InstName Co
SYMATTR Value 10µ
SYMBOL res 80 128 R90
WINDOW 0 0 56 VBottom 2
WINDOW 3 32 56 VTop 2
SYMATTR InstName Rb
SYMATTR Value 10k
SYMBOL res 208 224 R0
SYMATTR InstName Re
SYMATTR Value 400
SYMBOL res 208 -112 R0
SYMATTR InstName Rc
SYMATTR Value 2k
SYMBOL npn 160 96 R0
SYMATTR InstName Q1
SYMATTR Value npn2n222
TEXT -48 -192 Left 2 !.model npn2n222 NPN(BF={bf} Is=10f)
TEXT -48 -216 Left 2 !.step param bf list 10 200 1000
TEXT -48 -240 Left 2 !.tran 0 1m 0 0.01m
