Version 4
SHEET 1 880 680
WIRE 192 -96 192 -112
WIRE 400 -96 192 -96
WIRE 432 -96 400 -96
WIRE 192 -80 192 -96
WIRE 400 -80 400 -96
FLAG -48 96 0
FLAG -48 -32 0
FLAG -48 -160 0
FLAG 32 -160 Vdd
FLAG 32 -32 Vin1
FLAG 32 96 Vin2
FLAG 144 0 Vin1
FLAG 352 0 Vin2
FLAG 432 -96 Vout
FLAG 192 -192 Vdd
FLAG 400 16 0
FLAG 192 16 0
DATAFLAG 304 -96 ""
SYMBOL voltage 48 -160 R90
WINDOW 0 -32 56 VBottom 2
WINDOW 3 32 56 VTop 2
WINDOW 123 0 0 Left 0
WINDOW 39 0 0 Left 0
SYMATTR InstName Vdd
SYMATTR Value 9
SYMBOL voltage 48 -32 R90
WINDOW 0 -32 56 VBottom 2
WINDOW 3 32 56 VTop 2
WINDOW 123 0 0 Left 0
WINDOW 39 0 0 Left 0
SYMATTR InstName Vin1
SYMATTR Value 9
SYMBOL voltage 48 96 R90
WINDOW 0 -32 56 VBottom 2
WINDOW 3 32 56 VTop 2
WINDOW 123 0 0 Left 0
WINDOW 39 0 0 Left 0
SYMATTR InstName Vin2
SYMATTR Value 0
SYMBOL res 176 -208 R0
SYMATTR InstName Rd
SYMATTR Value 300
SYMBOL nmos 144 -80 R0
SYMATTR InstName M1
SYMATTR Value 2N7000
SYMBOL nmos 352 -80 R0
SYMATTR InstName M2
SYMATTR Value 2N7000
TEXT -68 198 Left 2 !.op
TEXT -72 176 Left 2 !.LIB 2N7000.sub
