Version 4
SHEET 1 880 680
WIRE 512 -64 512 -80
WIRE 512 -48 512 -64
WIRE 288 0 288 -80
WIRE 448 0 288 0
WIRE 96 16 96 -80
WIRE 512 80 512 48
WIRE 96 112 96 16
WIRE 512 112 512 80
WIRE 288 128 288 0
WIRE 48 176 32 176
WIRE 192 176 144 176
WIRE 224 176 192 176
WIRE 512 192 512 176
WIRE 608 192 512 192
WIRE 640 192 608 192
WIRE 512 224 512 192
WIRE 288 272 288 224
WIRE 368 272 288 272
WIRE 448 272 368 272
WIRE 288 288 288 272
WIRE 608 288 608 192
WIRE 512 368 512 320
FLAG 208 288 Vcc
FLAG 112 288 Vin
FLAG 112 368 0
FLAG 208 368 0
FLAG 96 -160 Vcc
FLAG 288 -160 Vcc
FLAG 512 -160 Vcc
FLAG 32 176 Vin
FLAG 288 368 0
FLAG 512 368 0
FLAG 608 368 0
FLAG 640 192 Vout
FLAG 512 80 q3e
FLAG 288 0 q2c
FLAG 96 16 q1c
FLAG 192 176 q1e
FLAG 368 272 q2e
FLAG 512 -64 q3c
SYMBOL res 80 -176 R0
SYMATTR InstName Rc1
SYMATTR Value 3.9k
SYMBOL res 272 -176 R0
SYMATTR InstName Rc2
SYMATTR Value 1.5k
SYMBOL res 496 -176 R0
SYMATTR InstName Rc3
SYMATTR Value 120
SYMBOL res 272 272 R0
SYMATTR InstName Re2
SYMATTR Value 1k
SYMBOL res 592 272 R0
SYMATTR InstName Rload
SYMATTR Value 1k
SYMBOL voltage 112 272 R0
WINDOW 123 0 0 Left 0
WINDOW 39 0 0 Left 0
SYMATTR InstName Vin
SYMATTR Value 5
SYMBOL voltage 208 272 R0
WINDOW 123 0 0 Left 0
WINDOW 39 0 0 Left 0
SYMATTR InstName Vcc
SYMATTR Value 5
SYMBOL npn 144 112 R90
SYMATTR InstName Q1
SYMBOL npn 224 128 R0
SYMATTR InstName Q2
SYMBOL npn 448 -48 R0
SYMATTR InstName Q3
SYMBOL npn 448 224 R0
SYMATTR InstName Q4
SYMBOL diode 496 112 R0
SYMATTR InstName D1
TEXT 6 256 Left 2 !.op
