Version 4
SHEET 1 880 680
FLAG -368 320 0
FLAG -368 240 po
SYMBOL bv -368 224 R0
SYMATTR InstName B1
SYMATTR Value V={(B*T**{3/2}*exp{(-Eg)/(2*k*T)})**2/Nd}
TEXT -392 48 Left 2 !.param T=300\n.param Eg=0.66\n.param B=1.66*(10**15)\n.param k=86*(10**-6)\n.step PARAM Nd 400T 2000T 100T\n.op
