Version 4
SHEET 1 880 680
WIRE 160 80 144 80
WIRE 224 80 160 80
WIRE 336 80 288 80
WIRE 144 128 144 80
WIRE 336 128 336 80
WIRE 144 256 144 208
WIRE 336 256 336 208
WIRE 336 256 144 256
WIRE 144 272 144 256
FLAG 144 272 0
FLAG 336 80 out
FLAG 160 80 in
SYMBOL voltage 144 112 R0
WINDOW 123 0 0 Left 0
WINDOW 39 0 0 Left 0
SYMATTR InstName Vin
SYMATTR Value SINE(0 5 60)
SYMBOL diode 224 96 R270
WINDOW 0 32 32 VTop 2
WINDOW 3 0 32 VBottom 2
SYMATTR InstName D1
SYMATTR Value 1N4002
SYMBOL res 320 112 R0
SYMATTR InstName R1
SYMATTR Value 2.7k
TEXT 112 360 Left 2 !.dc Vin -5 5 0.01
TEXT 112 336 Left 2 !.lib 1N4002.sub
