Version 4
SHEET 1 880 680
WIRE 160 80 96 80
WIRE 272 80 240 80
WIRE 304 80 272 80
WIRE 96 160 96 80
WIRE 304 176 304 144
WIRE 304 192 304 176
WIRE 96 272 96 240
WIRE 304 272 304 256
FLAG 304 272 0
FLAG 96 272 0
FLAG 272 80 Vd
FLAG 304 176 Vd2
SYMBOL voltage 96 144 R0
SYMATTR InstName Vps
SYMATTR Value {Vps}
SYMBOL res 256 64 R90
WINDOW 0 0 56 VBottom 2
WINDOW 3 32 56 VTop 2
SYMATTR InstName R1
SYMATTR Value {R1}
SYMBOL diode 288 80 R0
SYMATTR InstName D1
SYMATTR Value Dpw
SYMBOL diode 288 192 R0
SYMATTR InstName D2
SYMATTR Value Dpw
TEXT 88 304 Left 2 !.PARAM VPS=5 R1=2k
TEXT 88 328 Left 2 !.MODEL Dpw D(Ron=10 Vfwd=0.6)
TEXT 88 352 Left 2 !.tran 1
