Version 4
SHEET 1 880 680
WIRE 192 144 128 144
WIRE 320 144 272 144
WIRE 128 176 128 144
WIRE 320 176 320 144
WIRE 320 256 320 240
FLAG 320 256 0
FLAG 128 256 0
SYMBOL voltage 128 160 R0
WINDOW 123 0 0 Left 2
WINDOW 39 0 0 Left 2
SYMATTR InstName Vd
SYMATTR Value 0
SYMBOL res 288 128 R90
WINDOW 0 0 56 VBottom 2
WINDOW 3 32 56 VTop 2
SYMATTR InstName R1
SYMATTR Value 0.1
SYMBOL schottky 304 176 R0
SYMATTR InstName D1
SYMATTR Value DFLS220L
SYMATTR Description Diode
SYMATTR Type diode
TEXT 96 336 Left 2 !.MODEL DFLS220L D(Is=190n N=0.61)
TEXT 96 312 Left 2 !.dc Vd 0 0.5 0.001
