Version 4
SHEET 1 880 680
WIRE 288 80 208 80
WIRE 432 80 368 80
WIRE 208 144 208 80
WIRE 432 144 432 80
WIRE 208 272 208 224
WIRE 432 272 432 208
WIRE 432 272 208 272
WIRE 208 288 208 272
FLAG 208 288 0
SYMBOL voltage 208 128 R0
WINDOW 123 24 124 Left 2
WINDOW 39 0 0 Left 2
SYMATTR InstName V1
SYMATTR Value SINE(0 5 1k)
SYMATTR Value2 AC 5
SYMBOL res 384 64 R90
WINDOW 0 0 56 VBottom 2
WINDOW 3 32 56 VTop 2
SYMATTR InstName R1
SYMATTR Value 1292
SYMBOL cap 416 144 R0
SYMATTR InstName C1
SYMATTR Value 0.1µ
TEXT 174 312 Left 2 !.ac dec 10 10 10k
